Version 4
SHEET 1 880 680
WIRE -48 -240 -128 -240
WIRE 96 -240 32 -240
WIRE -320 -112 -336 -112
WIRE -144 -112 -176 -112
WIRE -144 -96 -144 -112
WIRE -128 -96 -128 -240
WIRE -128 -96 -144 -96
WIRE -32 -96 -128 -96
WIRE 96 -80 96 -240
WIRE 96 -80 32 -80
WIRE 192 -80 96 -80
WIRE -32 -64 -96 -64
WIRE -96 -32 -96 -64
WIRE 0 32 0 -48
WIRE 368 192 368 160
WIRE 368 288 368 272
FLAG 368 288 0
FLAG 0 -112 Supply
FLAG 368 160 Supply
FLAG 128 144 Input
FLAG 128 224 0
FLAG 0 32 0
FLAG -336 -112 Input
FLAG 544 224 0
FLAG 544 144 Offset
FLAG -96 -32 Offset
SYMBOL voltage 368 176 R0
WINDOW 123 0 0 Left 2
WINDOW 39 0 0 Left 2
SYMATTR InstName V1
SYMATTR Value 5
SYMBOL voltage 128 128 R0
WINDOW 3 -87 -79 Left 2
WINDOW 123 31 -30 Left 2
WINDOW 39 0 0 Left 2
SYMATTR Value SINE(1V 300mv 600)
SYMATTR InstName V3
SYMBOL res -64 -224 R270
WINDOW 0 32 56 VTop 2
WINDOW 3 0 56 VBottom 2
SYMATTR InstName R1
SYMATTR Value 220k
SYMBOL res -272 -96 R270
WINDOW 0 32 56 VTop 2
WINDOW 3 0 56 VBottom 2
SYMATTR InstName R2
SYMATTR Value 220k
SYMBOL cap -256 -128 R90
WINDOW 0 0 32 VBottom 2
WINDOW 3 32 32 VTop 2
SYMATTR InstName C1
SYMATTR Value 1µf
SYMBOL Opamps\\LT1490 0 -144 R0
SYMATTR InstName U1
SYMBOL voltage 544 128 R0
WINDOW 123 0 0 Left 2
WINDOW 39 0 0 Left 2
SYMATTR InstName V2
SYMATTR Value 1V
SYMBOL cap 256 -96 R90
WINDOW 0 0 32 VBottom 2
WINDOW 3 32 32 VTop 2
SYMATTR InstName C2
SYMATTR Value 47µf
TEXT -96 -360 Left 2 !.tran 0 5ms 0
TEXT -344 128 Left 2 !;ac oct 10 10 200000
