Version 4
SHEET 1 880 680
WIRE -96 -32 -176 -32
WIRE 48 -32 -16 -32
WIRE -368 96 -384 96
WIRE -192 96 -224 96
WIRE -192 112 -192 96
WIRE -176 112 -176 -32
WIRE -176 112 -192 112
WIRE -80 112 -176 112
WIRE 48 128 48 -32
WIRE 48 128 -16 128
WIRE 144 128 48 128
WIRE 336 128 208 128
WIRE -80 144 -256 144
WIRE -48 240 -48 160
FLAG 176 448 0
FLAG -48 96 Supply
FLAG 176 368 Supply
FLAG 272 448 0
FLAG 272 368 Offset
FLAG 80 352 Input
FLAG 80 432 0
FLAG -48 240 0
FLAG -256 144 Offset
FLAG -384 96 Input
SYMBOL voltage 176 352 R0
WINDOW 123 0 0 Left 2
WINDOW 39 0 0 Left 2
SYMATTR InstName V1
SYMATTR Value 5
SYMBOL voltage 272 352 R0
WINDOW 123 0 0 Left 2
WINDOW 39 0 0 Left 2
SYMATTR InstName V2
SYMATTR Value 1
SYMBOL voltage 80 336 R0
WINDOW 3 -87 -79 Left 2
WINDOW 123 24 44 Left 2
WINDOW 39 0 0 Left 2
SYMATTR Value SINE(0 AC 1 600)
SYMATTR Value2 AC 1 600
SYMATTR InstName V3
SYMBOL res -112 -16 R270
WINDOW 0 32 56 VTop 2
WINDOW 3 0 56 VBottom 2
SYMATTR InstName R1
SYMATTR Value 33k
SYMBOL res -320 112 R270
WINDOW 0 32 56 VTop 2
WINDOW 3 0 56 VBottom 2
SYMATTR InstName R2
SYMATTR Value 10k
SYMBOL cap -304 80 R90
WINDOW 0 0 32 VBottom 2
WINDOW 3 32 32 VTop 2
SYMATTR InstName C3
SYMATTR Value 1µf
SYMBOL cap 208 112 R90
WINDOW 0 0 32 VBottom 2
WINDOW 3 32 32 VTop 2
SYMATTR InstName C1
SYMATTR Value .1µf
SYMBOL Opamps\\LT1490 -48 64 R0
SYMATTR InstName U1
TEXT -144 -152 Left 2 !;tran 0 5ms 0
TEXT -392 336 Left 2 !.ac oct 10 10 200000
